# generated using pymatgen
data_CF2
_symmetry_space_group_name_H-M   'P 1'
_cell_length_a   15.38058900
_cell_length_b   14.88731656
_cell_length_c   6.78806346
_cell_angle_alpha   90.00000000
_cell_angle_beta   90.00000000
_cell_angle_gamma   90.00000000
_symmetry_Int_Tables_number   1
_chemical_formula_structural   CF2
_chemical_formula_sum   'C6 F12'
_cell_volume   1554.30156501
_cell_formula_units_Z   6
loop_
 _symmetry_equiv_pos_site_id
 _symmetry_equiv_pos_as_xyz
  1  'x, y, z'
loop_
 _atom_site_type_symbol
 _atom_site_label
 _atom_site_symmetry_multiplicity
 _atom_site_fract_x
 _atom_site_fract_y
 _atom_site_fract_z
 _atom_site_occupancy
  C  C0  1  0.53398124  0.52587164  0.92071940  1
  F  F1  1  0.61678157  0.52274139  0.00139738  1
  F  F2  1  0.52045645  0.61240933  0.85211555  1
  C  C3  1  0.46343100  0.50206347  0.07788182  1
  F  F4  1  0.42708295  0.41846460  0.04106472  1
  F  F5  1  0.39698576  0.56483452  0.07097686  1
  C  C6  1  0.46132245  0.51746787  0.25405273  1
  F  F7  1  0.42254622  0.59311612  0.33473071  1
  F  F8  1  0.39554454  0.46209813  0.18544888  1
  C  C9  1  0.51655479  0.46624925  0.41121516  1
  F  F10  1  0.60480566  0.47552735  0.37439806  1
  F  F11  1  0.49715952  0.37541384  0.40431020  1
  C  C12  1  0.50469631  0.45666048  0.58738606  1
  F  F13  1  0.46067221  0.38414249  0.66806405  1
  F  F14  1  0.58399901  0.42549254  0.51878222  1
  C  C15  1  0.52001421  0.53168728  0.74454849  1
  F  F16  1  0.46811139  0.60600805  0.70773139  1
  F  F17  1  0.60585472  0.55975164  0.73764353  1
