data_image0
_chemical_formula_structural       CF2CF2CF2CF2CF2CF2
_chemical_formula_sum              "C6 F12"
_cell_length_a       14.7931598979034
_cell_length_b       15.453187247935253
_cell_length_c       5.1714612447524155
_cell_angle_alpha    89.99845435589475
_cell_angle_beta     90.00321766930558
_cell_angle_gamma    90.0028122919646

_space_group_name_H-M_alt    "P 1"
_space_group_IT_number       1

loop_
  _space_group_symop_operation_xyz
  'x, y, z'

loop_
  _atom_site_type_symbol
  _atom_site_label
  _atom_site_symmetry_multiplicity
  _atom_site_fract_x
  _atom_site_fract_y
  _atom_site_fract_z
  _atom_site_occupancy
  C   C1        1.0  0.44436152888604136  0.5669055612645556  0.8960662182416891  1.0000
  F   F1        1.0  0.3760521045402732  0.5776252190916823  0.728101676063825  1.0000
  F   F2        1.0  0.445329623152429  0.6363563527649522  0.052399212556821784  1.0000
  C   C2        1.0  0.411453076484731  0.4886453142840013  0.06866696276805273  1.0000
  F   F3        1.0  0.3618769302818473  0.4379297498861843  0.9123371738458236  1.0000
  F   F4        1.0  0.3544481039172575  0.5262190822089865  0.23664788415594246  1.0000
  C   C3        1.0  0.46729010991547026  0.4204111981264692  0.22938699019636644  1.0000
  F   F5        1.0  0.49175472899460737  0.35843717551815196  0.061400332887744956  1.0000
  F   F6        1.0  0.4039837372487078  0.38646857768695486  0.3856996893222118  1.0000
  C   C4        1.0  0.5545411634776845  0.43226605900093595  0.40200209141906196  1.0000
  F   F7        1.0  0.6252107381714834  0.4165421191565294  0.24567805543506824  1.0000
  F   F8        1.0  0.5490639022375692  0.3662120234224201  0.5699738127053412  1.0000
  C   C5        1.0  0.5883453126908074  0.5126760297230902  0.5627269665287559  1.0000
  F   F9        1.0  0.6321800196337551  0.5639536711251055  0.3947425021719156  1.0000
  F   F10       1.0  0.6507063483166464  0.4771662755804145  0.7190528431300602  1.0000
  C   C6        1.0  0.5340016741597077  0.5790816649602414  0.7353256748308239  1.0000
  F   F11       1.0  0.5128961847363159  0.6455348400505669  0.5789887538495642  1.0000
  F   F12       1.0  0.5965047131547087  0.6075690861487577  0.9032863629962217  1.0000
